*Heading
** Job name: OR-AND-Gate-paremetrical-4 Model name: OR-AND-GATE-h15e-01-t9e-01
** Generated by: Abaqus/CAE 2019
*Preprint, echo=NO, model=NO, history=NO, contact=NO
**
** PARTS
**
*Part, name=PART-1
*Node
 581033,       -21.25,  -1.88636363,           5.
 581034,       -21.25,  -1.71306813,           5.
 581035,       -21.25,  -1.53977275,           5.
 581036,       -21.25,  -1.36647725,           5.
 581037,       -21.25,  -1.19318187,           5.
 581038,       -21.25,  -1.01988637,           5.
 581039,       -21.25, -0.846590936,           5.
 581040,       -21.25, -0.673295438,           5.
 581041,       -21.25,         -0.5,           5.
 581042,   -21.416666,         -0.5,           5.
 581043,   -21.583334,         -0.5,           5.
 581044,       -21.75,         -0.5,           5.
 581045,       -21.75, -0.701704562,           5.
 581046,       -21.75, -0.903409064,           5.
 581047,       -21.75,  -1.10511363,           5.
 581048,       -21.75,  -1.30681813,           5.
 581049,       -21.75,  -1.50852275,           5.
 581050,       -21.75,  -1.71022725,           5.
 581051,       -21.75,  -1.91193187,           5.
 581052,       -21.75,  -2.11363626,           5.
** ... 20592 like lines cut
*Element, type=C3D8R
400000, 600069, 600064, 600067, 600070, 601801, 601796, 601799, 601802
400001, 600068, 600069, 600070, 600071, 601800, 601801, 601802, 601803
400002, 600067, 600066, 600057, 600056, 601799, 601798, 601789, 601788
400003, 600062, 600059, 600037, 600053, 601794, 601791, 601769, 601785
400004, 600064, 600065, 600066, 600067, 601796, 601797, 601798, 601799
400005, 600063, 600062, 600053, 600052, 601795, 601794, 601785, 601784
400006, 600061, 600056, 600059, 600062, 601793, 601788, 601791, 601794
400007, 600060, 600061, 600062, 600063, 601792, 601793, 601794, 601795
400008, 600059, 600058, 600038, 600037, 601791, 601790, 601770, 601769
400009, 600056, 600057, 600058, 600059, 601788, 601789, 601790, 601791
400010, 600054, 600040, 600046, 600049, 601786, 601772, 601778, 601781
400011, 600055, 600054, 600049, 600051, 601787, 601786, 601781, 601783
400012, 600053, 600037, 600040, 600054, 601785, 601769, 601772, 601786
400013, 600052, 600053, 600054, 600055, 601784, 601785, 601786, 601787
400014, 600049, 600048, 600050, 600051, 601781, 601780, 601782, 601783
400015, 600046, 600047, 600048, 600049, 601778, 601779, 601780, 601781
400016, 600040, 600039, 600045, 600046, 601772, 601771, 601777, 601778
400017, 600043, 600034, 600035, 600028, 601775, 601766, 601767, 601760
400018, 600042, 600031, 600034, 600043, 601774, 601763, 601766, 601775
400019, 600044, 600043, 600028, 600027, 601776, 601775, 601760, 601759
** ... 14712 like lines cut
*Elset, elset=GATE, generate
 400000,  414731,       1
*Elset, elset=LEFT-BLOCK
 413560, 413561, 413562, 413565, 413569, 413570, 413576, 413577, 413581, 413583, 413584, 413590, 413591, 413595, 413596, 413598
 413600, 413601, 413607, 413608, 413609, 413610, 413611, 413612, 413613, 413614, 413617, 413618, 413620, 413622, 413624, 413626
 413627, 413633, 413634, 413635, 413636, 413637, 413638, 413639, 413640, 413643, 413644, 413646, 413648, 413649, 413650, 413653
 413657, 413658, 413664, 413665, 413669, 413670, 413672, 413674, 413675, 413681, 413682, 413683, 413684, 413685, 413686, 413687
 413688, 413691, 413692, 413694, 413696, 413697, 413698, 413701, 413705, 413706, 413712, 413713, 413717, 413718, 413720, 413722
 413723, 413729, 413730, 413731, 413732, 413733, 413734, 413735, 413736, 413739, 413740, 413742, 413744, 413745, 413746, 413749
*Elset, elset=RIGHT-BLOCK
 413563, 413564, 413566, 413567, 413568, 413571, 413572, 413573, 413574, 413575, 413578, 413579, 413580, 413582, 413585, 413586
 413587, 413588, 413589, 413592, 413593, 413594, 413597, 413599, 413602, 413603, 413604, 413605, 413606, 413615, 413616, 413619
 413621, 413623, 413625, 413628, 413629, 413630, 413631, 413632, 413641, 413642, 413645, 413647, 413651, 413652, 413654, 413655
 413656, 413659, 413660, 413661, 413662, 413663, 413666, 413667, 413668, 413671, 413673, 413676, 413677, 413678, 413679, 413680
 413689, 413690, 413693, 413695, 413699, 413700, 413702, 413703, 413704, 413707, 413708, 413709, 413710, 413711, 413714, 413715
 413716, 413719, 413721, 413724, 413725, 413726, 413727, 413728, 413737, 413738, 413741, 413743, 413747, 413748, 413750, 413751
** Section: Section-1-GATE
*Solid Section, elset=GATE, controls=EC-1, material=TPU
,
*End Part
**  
*Part, name=PART-2
*Node
  12838,  -20.0065365,  -1.01999998,           0.
  12839,  -20.0065365,           0.,           0.
  12840,  -20.0065365,   1.01999998,           0.
  12841,  -21.0054474,           1.,           0.
  12842,  -22.0043583,           1.,           0.
  12843,  -23.0032673,           1.,           0.
  12844,  -24.0021782,           1.,           0.
  12845,  -25.0010891,           1.,           0.
  12846,         -26.,           1.,           0.
  12847,         -26.,           0.,           0.
  12848,         -26.,          -1.,           0.
  12849,  -25.0010891,          -1.,           0.
  12850,  -24.0021782,          -1.,           0.
  12851,  -23.0032673,          -1.,           0.
  12852,  -22.0043583,          -1.,           0.
  12853,  -21.0054474,          -1.,           0.
  12854,  -23.0032673,           0.,           0.
  12855,  -21.0054474,           0.,           0.
  12856,  -22.0043583,           0.,           0.
  12857,  -24.0021782,           0.,           0.
** ... 16582 like lines cut
*Element, type=C3D8R
11000000, 12841, 12840, 12839, 12855, 15592, 15595, 15594, 15593
11000001, 12855, 12839, 12838, 12853, 15593, 15594, 15597, 15596
11000002, 12843, 12842, 12856, 12854, 15598, 15601, 15600, 15599
11000003, 12842, 12841, 12855, 12856, 15601, 15592, 15593, 15600
11000004, 12854, 12856, 12852, 12851, 15599, 15600, 15603, 15602
11000005, 12856, 12855, 12853, 12852, 15600, 15593, 15596, 15603
11000006, 12844, 12843, 12854, 12857, 15604, 15598, 15599, 15605
11000007, 12857, 12854, 12851, 12850, 15605, 15599, 15602, 15606
11000008, 12846, 12845, 12858, 12847, 15607, 15610, 15609, 15608
11000009, 12845, 12844, 12857, 12858, 15610, 15604, 15605, 15609
11000010, 12847, 12858, 12849, 12848, 15608, 15609, 15612, 15611
11000011, 12858, 12857, 12850, 12849, 15609, 15605, 15606, 15612
11000012, 12904, 12902, 12901, 12905, 15613, 15616, 15615, 15614
11000013, 12905, 12901, 12899, 12898, 15614, 15615, 15618, 15617
11000014, 12892, 12904, 12905, 12893, 15619, 15613, 15614, 15620
11000015, 12893, 12905, 12898, 12894, 15620, 15614, 15617, 15621
11000016, 12870, 12869, 12903, 12906, 15622, 15625, 15624, 15623
11000017, 12906, 12903, 12902, 12904, 15623, 15624, 15616, 15613
11000018, 12871, 12870, 12906, 12891, 15626, 15622, 15623, 15627
11000019, 12891, 12906, 12904, 12892, 15627, 15623, 15613, 15619
** ... 13000 like lines cut
*Elset, elset=BASE, generate
11000000, 11013019,       1
** Section: Section-2-BASE
*Solid Section, elset=BASE, material=BASE
,
*End Part
**  
*Part, name=PART-3
*Node
*Element, type=C3D8R
*Elset, elset=ARC, generate
    1,  2000,     1
** Section: Section-3-ARC
*Solid Section, elset=ARC, controls=EC-1, material=TPU
,
*End Part
**  
*Part, name=PART-4
*Node
*Element, type=C3D8R
*Elset, elset=COLUMN, generate
 2001,  2360,     1
** Section: Section-4-COLUMN
*Solid Section, elset=COLUMN, controls=EC-1, material=TPU
,
*End Part
**  
**
** ASSEMBLY
**
*Assembly, name=Assembly
**  
*Instance, name=PART-1-1, part=PART-1
*End Instance
**  
*Instance, name=PART-2-1, part=PART-2
*End Instance
**  
*Instance, name=PART-3-1, part=PART-3
*End Instance
**  
*Instance, name=PART-4-1, part=PART-4
*End Instance
**  
*Node
      1,           0.,           0.,          -5.
      2,       -24.75,           0.,          2.5
      3,        24.75,           0.,          2.5
      4,         -20.,           0.,          -2.
      5,          20.,           0.,          -2.
*Nset, nset=BASE-RP
 1,
*Nset, nset=LEFT-RP
 2,
*Nset, nset=LEFTB-RP
 4,
*Nset, nset=RIGHT-RP
 3,
*Nset, nset=RIGHTB-RP
 5,
*Elset, elset=_BASE-FIXER_S3, internal, instance=PART-2-1
11000471,11000473,11000550,11000552,11000554,11000704,11000706,11000708,11000875,11000877,11000912,11000913,11000914,11000996,11000998,11000999
11001108,11001110,11001112,11001150,11001152,11001154,11003059,11003061,11003138,11003140,11003142,11003292,11003294,11003296,11003463,11003465
11003500,11003501,11003502,11003584,11003586,11003587,11003696,11003698,11003700,11003738,11003740,11003742,11005647,11005649,11005726,11005728
11005730,11005880,11005882,11005884,11006051,11006053,11006088,11006089,11006090,11006172,11006174,11006175,11006284,11006286,11006288,11006326
11006328,11006330,11008235,11008237,11008314,11008316,11008318,11008468,11008470,11008472,11008639,11008641,11008676,11008677,11008678,11008760
11008762,11008763,11008872,11008874,11008876,11008914,11008916,11008918,11010823,11010825,11010902,11010904,11010906,11011056,11011058,11011060
11011227,11011229,11011264,11011265,11011266,11011348,11011350,11011351,11011460,11011462,11011464,11011502,11011504,11011506
*Elset, elset=_BASE-FIXER_S4, internal, instance=PART-2-1
11000730,11000731,11003318,11003319,11005906,11005907,11008494,11008495,11011082,11011083
*Elset, elset=_BASE-FIXER_S5, internal, instance=PART-2-1
11000355,11000357,11000359,11000443,11000445,11000447,11000468,11000735,11000737,11000739,11000872,11002943,11002945,11002947,11003031,11003033
11003035,11003056,11003323,11003325,11003327,11003460,11005531,11005533,11005535,11005619,11005621,11005623,11005644,11005911,11005913,11005915
11006048,11008119,11008121,11008123,11008207,11008209,11008211,11008232,11008499,11008501,11008503,11008636,11010707,11010709,11010711,11010795
11010797,11010799,11010820,11011087,11011089,11011091,11011224
*Elset, elset=_BASE-FIXER_S6, internal, instance=PART-2-1
11000112,11000114,11000116,11000212,11000214,11000216,11000236,11000238,11000240,11000728,11001020,11001022,11001024,11002700,11002702,11002704
11002800,11002802,11002804,11002824,11002826,11002828,11003316,11003608,11003610,11003612,11005288,11005290,11005292,11005388,11005390,11005392
11005412,11005414,11005416,11005904,11006196,11006198,11006200,11007876,11007878,11007880,11007976,11007978,11007980,11008000,11008002,11008004
11008492,11008784,11008786,11008788,11010464,11010466,11010468,11010564,11010566,11010568,11010588,11010590,11010592,11011080,11011372,11011374
11011376,
*Elset, elset=_FIXER-BASE_S3, internal, instance=PART-1-1
 413803, 413806, 413808, 413841, 413852, 413861, 413862, 413903, 413999, 414002, 414004, 414037, 414048, 414057, 414058, 414099
 414195, 414198, 414200, 414233, 414244, 414253, 414254, 414295, 414391, 414394, 414396, 414429, 414440, 414449, 414450, 414491
 414587, 414590, 414592, 414625, 414636, 414645, 414646, 414687
*Elset, elset=_FIXER-BASE_S4, internal, instance=PART-1-1
 413753, 413757, 413762, 413766, 413769, 413770, 413771, 413773, 413783, 413785, 413801, 413802, 413820, 413823, 413825, 413832
 413834, 413835, 413841, 413842, 413846, 413850, 413853, 413855, 413856, 413866, 413867, 413878, 413885, 413894, 413897, 413898
 413901, 413921, 413922, 413924, 413930, 413932, 413942, 413949, 413953, 413958, 413962, 413965, 413966, 413967, 413969, 413979
 413981, 413997, 413998, 414016, 414019, 414021, 414028, 414030, 414031, 414037, 414038, 414042, 414046, 414049, 414051, 414052
 414062, 414063, 414074, 414081, 414090, 414093, 414094, 414097, 414117, 414118, 414120, 414126, 414128, 414138, 414145, 414149
 414154, 414158, 414161, 414162, 414163, 414165, 414175, 414177, 414193, 414194, 414212, 414215, 414217, 414224, 414226, 414227
 414233, 414234, 414238, 414242, 414245, 414247, 414248, 414258, 414259, 414270, 414277, 414286, 414289, 414290, 414293, 414313
 414314, 414316, 414322, 414324, 414334, 414341, 414345, 414350, 414354, 414357, 414358, 414359, 414361, 414371, 414373, 414389
 414390, 414408, 414411, 414413, 414420, 414422, 414423, 414429, 414430, 414434, 414438, 414441, 414443, 414444, 414454, 414455
 414466, 414473, 414482, 414485, 414486, 414489, 414509, 414510, 414512, 414518, 414520, 414530, 414537, 414541, 414546, 414550
 414553, 414554, 414555, 414557, 414567, 414569, 414585, 414586, 414604, 414607, 414609, 414616, 414618, 414619, 414625, 414626
 414630, 414634, 414637, 414639, 414640, 414650, 414651, 414662, 414669, 414678, 414681, 414682, 414685, 414705, 414706, 414708
 414714, 414716, 414726
*Elset, elset=_FIXER-BASE_S5, internal, instance=PART-1-1
 413756, 413766, 413768, 413773, 413784, 413786, 413792, 413795, 413798, 413800, 413801, 413802, 413804, 413807, 413810, 413813
 413818, 413820, 413831, 413836, 413838, 413840, 413847, 413850, 413851, 413859, 413865, 413889, 413894, 413900, 413901, 413906
 413910, 413914, 413934, 413937, 413939, 413946, 413947, 413952, 413962, 413964, 413969, 413980, 413982, 413988, 413991, 413994
 413996, 413997, 413998, 414000, 414003, 414006, 414009, 414014, 414016, 414027, 414032, 414034, 414036, 414043, 414046, 414047
 414055, 414061, 414085, 414090, 414096, 414097, 414102, 414106, 414110, 414130, 414133, 414135, 414142, 414143, 414148, 414158
 414160, 414165, 414176, 414178, 414184, 414187, 414190, 414192, 414193, 414194, 414196, 414199, 414202, 414205, 414210, 414212
 414223, 414228, 414230, 414232, 414239, 414242, 414243, 414251, 414257, 414281, 414286, 414292, 414293, 414298, 414302, 414306
 414326, 414329, 414331, 414338, 414339, 414344, 414354, 414356, 414361, 414372, 414374, 414380, 414383, 414386, 414388, 414389
 414390, 414392, 414395, 414398, 414401, 414406, 414408, 414419, 414424, 414426, 414428, 414435, 414438, 414439, 414447, 414453
 414477, 414482, 414488, 414489, 414494, 414498, 414502, 414522, 414525, 414527, 414534, 414535, 414540, 414550, 414552, 414557
 414568, 414570, 414576, 414579, 414582, 414584, 414585, 414586, 414588, 414591, 414594, 414597, 414602, 414604, 414615, 414620
 414622, 414624, 414631, 414634, 414635, 414643, 414649, 414673, 414678, 414684, 414685, 414690, 414694, 414698, 414718, 414721
 414723, 414730, 414731
*Elset, elset=_FIXER-BASE_S6, internal, instance=PART-1-1
 413758, 413782, 413788, 413789, 413792, 413794, 413799, 413806, 413808, 413809, 413812, 413817, 413818, 413833, 413875, 413881
 413888, 413903, 413904, 413908, 413920, 413923, 413931, 413933, 413937, 413939, 413954, 413978, 413984, 413985, 413988, 413990
 413995, 414002, 414004, 414005, 414008, 414013, 414014, 414029, 414071, 414077, 414084, 414099, 414100, 414104, 414116, 414119
 414127, 414129, 414133, 414135, 414150, 414174, 414180, 414181, 414184, 414186, 414191, 414198, 414200, 414201, 414204, 414209
 414210, 414225, 414267, 414273, 414280, 414295, 414296, 414300, 414312, 414315, 414323, 414325, 414329, 414331, 414346, 414370
 414376, 414377, 414380, 414382, 414387, 414394, 414396, 414397, 414400, 414405, 414406, 414421, 414463, 414469, 414476, 414491
 414492, 414496, 414508, 414511, 414519, 414521, 414525, 414527, 414542, 414566, 414572, 414573, 414576, 414578, 414583, 414590
 414592, 414593, 414596, 414601, 414602, 414617, 414659, 414665, 414672, 414687, 414688, 414692, 414704, 414707, 414715, 414717
 414721, 414723
*Elset, elset=_GATE-ARC_S3, internal, instance=PART-1-1
 400242, 400243, 400244, 400245, 401598, 401599, 401600, 401601, 402954, 402955, 402956, 402957, 405360, 405361, 405362, 405363
 406716, 406717, 406718, 406719, 408072, 408073, 408074, 408075, 409428, 409429, 409430, 409431, 410784, 410785, 410786, 410787
 412140, 412141, 412142, 412143, 413496, 413497, 413498, 413499
*Elset, elset=_GATE-ARC_S4, internal, instance=PART-1-1
 400197, 400199, 400202, 400203, 401553, 401555, 401558, 401559, 402909, 402911, 402914, 402915, 405402, 405403, 405406, 405408
 406758, 406759, 406762, 406764, 408114, 408115, 408118, 408120, 409470, 409471, 409474, 409476, 410826, 410827, 410830, 410832
 412182, 412183, 412186, 412188, 413538, 413539, 413542, 413544
*Elset, elset=_GATE-COLUMN_S6, internal, instance=PART-1-1
 400880, 400881, 402236, 402237, 403592, 403593, 404724, 404725, 406080, 406081, 407436, 407437, 408792, 408793, 410148, 410149
 411504, 411505, 412860, 412861
*Elset, elset=_LEFT-IN_S4, internal, instance=PART-1-1
 400262, 400263, 401618, 401619, 402974, 402975, 405342, 405343, 406698, 406699, 408054, 408055, 409410, 409411, 410766, 410767
 412122, 412123, 413478, 413479
*Nset, nset=_PickedSet42, internal
 1,
*Nset, nset=_PickedSet43, internal
 4,
*Nset, nset=_PickedSet44, internal
 5,
*Elset, elset=_RIGHT-IN_S4, internal, instance=PART-1-1
 400195, 400200, 401551, 401556, 402907, 402912, 405405, 405410, 406761, 406766, 408117, 408122, 409473, 409478, 410829, 410834
 412185, 412190, 413541, 413546
*Elset, elset=_ARC-COLUMN_S5, internal, instance=PART-3-1
  147,  148,  149,  150,  151,  152,  153,  154,  347,  348,  349,  350,  351,  352,  353,  354
  547,  548,  549,  550,  551,  552,  553,  554,  747,  748,  749,  750,  751,  752,  753,  754
  947,  948,  949,  950,  951,  952,  953,  954, 1147, 1148, 1149, 1150, 1151, 1152, 1153, 1154
 1347, 1348, 1349, 1350, 1351, 1352, 1353, 1354, 1547, 1548, 1549, 1550, 1551, 1552, 1553, 1554
 1747, 1748, 1749, 1750, 1751, 1752, 1753, 1754, 1947, 1948, 1949, 1950, 1951, 1952, 1953, 1954
*Surface, type=ELEMENT, name=ARC-COLUMN
_ARC-COLUMN_S5, S5
*Elset, elset=_ARC-GATE_S4, internal, instance=PART-3-1, generate
  100,  2000,   100
*Elset, elset=_ARC-GATE_S6, internal, instance=PART-3-1, generate
    1,  1901,   100
*Surface, type=ELEMENT, name=ARC-GATE
_ARC-GATE_S4, S4
_ARC-GATE_S6, S6
*Elset, elset=_BASE-FIXER_S3_1, internal, instance=PART-2-1
11000471,11000473,11000550,11000552,11000554,11000704,11000706,11000708,11000875,11000877,11000912,11000913,11000914,11000996,11000998,11000999
11001108,11001110,11001112,11001150,11001152,11001154,11003059,11003061,11003138,11003140,11003142,11003292,11003294,11003296,11003463,11003465
11003500,11003501,11003502,11003584,11003586,11003587,11003696,11003698,11003700,11003738,11003740,11003742,11005647,11005649,11005726,11005728
11005730,11005880,11005882,11005884,11006051,11006053,11006088,11006089,11006090,11006172,11006174,11006175,11006284,11006286,11006288,11006326
11006328,11006330,11008235,11008237,11008314,11008316,11008318,11008468,11008470,11008472,11008639,11008641,11008676,11008677,11008678,11008760
11008762,11008763,11008872,11008874,11008876,11008914,11008916,11008918,11010823,11010825,11010902,11010904,11010906,11011056,11011058,11011060
11011227,11011229,11011264,11011265,11011266,11011348,11011350,11011351,11011460,11011462,11011464,11011502,11011504,11011506
*Elset, elset=_BASE-FIXER_S4_1, internal, instance=PART-2-1
11000730,11000731,11003318,11003319,11005906,11005907,11008494,11008495,11011082,11011083
*Elset, elset=_BASE-FIXER_S6_1, internal, instance=PART-2-1
11000112,11000114,11000116,11000212,11000214,11000216,11000236,11000238,11000240,11000728,11001020,11001022,11001024,11002700,11002702,11002704
11002800,11002802,11002804,11002824,11002826,11002828,11003316,11003608,11003610,11003612,11005288,11005290,11005292,11005388,11005390,11005392
11005412,11005414,11005416,11005904,11006196,11006198,11006200,11007876,11007878,11007880,11007976,11007978,11007980,11008000,11008002,11008004
11008492,11008784,11008786,11008788,11010464,11010466,11010468,11010564,11010566,11010568,11010588,11010590,11010592,11011080,11011372,11011374
11011376,
*Elset, elset=_BASE-FIXER_S5_1, internal, instance=PART-2-1
11000355,11000357,11000359,11000443,11000445,11000447,11000468,11000735,11000737,11000739,11000872,11002943,11002945,11002947,11003031,11003033
11003035,11003056,11003323,11003325,11003327,11003460,11005531,11005533,11005535,11005619,11005621,11005623,11005644,11005911,11005913,11005915
11006048,11008119,11008121,11008123,11008207,11008209,11008211,11008232,11008499,11008501,11008503,11008636,11010707,11010709,11010711,11010795
11010797,11010799,11010820,11011087,11011089,11011091,11011224
*Surface, type=ELEMENT, name=BASE-FIXER
_BASE-FIXER_S3_1, S3
_BASE-FIXER_S4_1, S4
_BASE-FIXER_S6_1, S6
_BASE-FIXER_S5_1, S5
*Elset, elset=_COLUMN-ARC_S3, internal, instance=PART-4-1
 2001, 2002, 2003, 2073, 2074, 2075, 2145, 2146, 2147, 2217, 2218, 2219, 2289, 2290, 2291
*Surface, type=ELEMENT, name=COLUMN-ARC
_COLUMN-ARC_S3, S3
*Elset, elset=_COLUMN-GATE_S5, internal, instance=PART-4-1
 2070, 2071, 2072, 2142, 2143, 2144, 2214, 2215, 2216, 2286, 2287, 2288, 2358, 2359, 2360
*Surface, type=ELEMENT, name=COLUMN-GATE
_COLUMN-GATE_S5, S5
*Elset, elset=_FIXER-BASE_S3_1, internal, instance=PART-1-1
 413803, 413806, 413808, 413841, 413852, 413861, 413862, 413903, 413999, 414002, 414004, 414037, 414048, 414057, 414058, 414099
 414195, 414198, 414200, 414233, 414244, 414253, 414254, 414295, 414391, 414394, 414396, 414429, 414440, 414449, 414450, 414491
 414587, 414590, 414592, 414625, 414636, 414645, 414646, 414687
*Elset, elset=_FIXER-BASE_S4_1, internal, instance=PART-1-1
 413753, 413757, 413762, 413766, 413769, 413770, 413771, 413773, 413783, 413785, 413801, 413802, 413820, 413823, 413825, 413832
 413834, 413835, 413841, 413842, 413846, 413850, 413853, 413855, 413856, 413866, 413867, 413878, 413885, 413894, 413897, 413898
 413901, 413921, 413922, 413924, 413930, 413932, 413942, 413949, 413953, 413958, 413962, 413965, 413966, 413967, 413969, 413979
 413981, 413997, 413998, 414016, 414019, 414021, 414028, 414030, 414031, 414037, 414038, 414042, 414046, 414049, 414051, 414052
 414062, 414063, 414074, 414081, 414090, 414093, 414094, 414097, 414117, 414118, 414120, 414126, 414128, 414138, 414145, 414149
 414154, 414158, 414161, 414162, 414163, 414165, 414175, 414177, 414193, 414194, 414212, 414215, 414217, 414224, 414226, 414227
 414233, 414234, 414238, 414242, 414245, 414247, 414248, 414258, 414259, 414270, 414277, 414286, 414289, 414290, 414293, 414313
 414314, 414316, 414322, 414324, 414334, 414341, 414345, 414350, 414354, 414357, 414358, 414359, 414361, 414371, 414373, 414389
 414390, 414408, 414411, 414413, 414420, 414422, 414423, 414429, 414430, 414434, 414438, 414441, 414443, 414444, 414454, 414455
 414466, 414473, 414482, 414485, 414486, 414489, 414509, 414510, 414512, 414518, 414520, 414530, 414537, 414541, 414546, 414550
 414553, 414554, 414555, 414557, 414567, 414569, 414585, 414586, 414604, 414607, 414609, 414616, 414618, 414619, 414625, 414626
 414630, 414634, 414637, 414639, 414640, 414650, 414651, 414662, 414669, 414678, 414681, 414682, 414685, 414705, 414706, 414708
 414714, 414716, 414726
*Elset, elset=_FIXER-BASE_S6_1, internal, instance=PART-1-1
 413758, 413782, 413788, 413789, 413792, 413794, 413799, 413806, 413808, 413809, 413812, 413817, 413818, 413833, 413875, 413881
 413888, 413903, 413904, 413908, 413920, 413923, 413931, 413933, 413937, 413939, 413954, 413978, 413984, 413985, 413988, 413990
 413995, 414002, 414004, 414005, 414008, 414013, 414014, 414029, 414071, 414077, 414084, 414099, 414100, 414104, 414116, 414119
 414127, 414129, 414133, 414135, 414150, 414174, 414180, 414181, 414184, 414186, 414191, 414198, 414200, 414201, 414204, 414209
 414210, 414225, 414267, 414273, 414280, 414295, 414296, 414300, 414312, 414315, 414323, 414325, 414329, 414331, 414346, 414370
 414376, 414377, 414380, 414382, 414387, 414394, 414396, 414397, 414400, 414405, 414406, 414421, 414463, 414469, 414476, 414491
 414492, 414496, 414508, 414511, 414519, 414521, 414525, 414527, 414542, 414566, 414572, 414573, 414576, 414578, 414583, 414590
 414592, 414593, 414596, 414601, 414602, 414617, 414659, 414665, 414672, 414687, 414688, 414692, 414704, 414707, 414715, 414717
 414721, 414723
*Elset, elset=_FIXER-BASE_S5_1, internal, instance=PART-1-1
 413756, 413766, 413768, 413773, 413784, 413786, 413792, 413795, 413798, 413800, 413801, 413802, 413804, 413807, 413810, 413813
 413818, 413820, 413831, 413836, 413838, 413840, 413847, 413850, 413851, 413859, 413865, 413889, 413894, 413900, 413901, 413906
 413910, 413914, 413934, 413937, 413939, 413946, 413947, 413952, 413962, 413964, 413969, 413980, 413982, 413988, 413991, 413994
 413996, 413997, 413998, 414000, 414003, 414006, 414009, 414014, 414016, 414027, 414032, 414034, 414036, 414043, 414046, 414047
 414055, 414061, 414085, 414090, 414096, 414097, 414102, 414106, 414110, 414130, 414133, 414135, 414142, 414143, 414148, 414158
 414160, 414165, 414176, 414178, 414184, 414187, 414190, 414192, 414193, 414194, 414196, 414199, 414202, 414205, 414210, 414212
 414223, 414228, 414230, 414232, 414239, 414242, 414243, 414251, 414257, 414281, 414286, 414292, 414293, 414298, 414302, 414306
 414326, 414329, 414331, 414338, 414339, 414344, 414354, 414356, 414361, 414372, 414374, 414380, 414383, 414386, 414388, 414389
 414390, 414392, 414395, 414398, 414401, 414406, 414408, 414419, 414424, 414426, 414428, 414435, 414438, 414439, 414447, 414453
 414477, 414482, 414488, 414489, 414494, 414498, 414502, 414522, 414525, 414527, 414534, 414535, 414540, 414550, 414552, 414557
 414568, 414570, 414576, 414579, 414582, 414584, 414585, 414586, 414588, 414591, 414594, 414597, 414602, 414604, 414615, 414620
 414622, 414624, 414631, 414634, 414635, 414643, 414649, 414673, 414678, 414684, 414685, 414690, 414694, 414698, 414718, 414721
 414723, 414730, 414731
*Surface, type=ELEMENT, name=FIXER-BASE
_FIXER-BASE_S3_1, S3
_FIXER-BASE_S4_1, S4
_FIXER-BASE_S6_1, S6
_FIXER-BASE_S5_1, S5
*Elset, elset=_GATE-ARC_S3_1, internal, instance=PART-1-1
 400242, 400243, 400244, 400245, 401598, 401599, 401600, 401601, 402954, 402955, 402956, 402957, 405360, 405361, 405362, 405363
 406716, 406717, 406718, 406719, 408072, 408073, 408074, 408075, 409428, 409429, 409430, 409431, 410784, 410785, 410786, 410787
 412140, 412141, 412142, 412143, 413496, 413497, 413498, 413499
*Elset, elset=_GATE-ARC_S4_1, internal, instance=PART-1-1
 400197, 400199, 400202, 400203, 401553, 401555, 401558, 401559, 402909, 402911, 402914, 402915, 405402, 405403, 405406, 405408
 406758, 406759, 406762, 406764, 408114, 408115, 408118, 408120, 409470, 409471, 409474, 409476, 410826, 410827, 410830, 410832
 412182, 412183, 412186, 412188, 413538, 413539, 413542, 413544
*Surface, type=ELEMENT, name=GATE-ARC
_GATE-ARC_S3_1, S3
_GATE-ARC_S4_1, S4
*Surface, type=ELEMENT, name=GATE-COLUMN
_GATE-COLUMN_S6, S6
*Surface, type=ELEMENT, name=LEFT-IN
_LEFT-IN_S4, S4
*Surface, type=ELEMENT, name=RIGHT-IN
_RIGHT-IN_S4, S4
** Constraint: COUPLING-1
*Coupling, constraint name=COUPLING-1, ref node=LEFT-RP, surface=LEFT-IN
*Kinematic
** Constraint: COUPLING-2
*Coupling, constraint name=COUPLING-2, ref node=RIGHT-RP, surface=RIGHT-IN
*Kinematic
** Constraint: RigidBody-1
*Rigid Body, ref node=_PickedSet42, elset=PART-2-1.BASE
** Constraint: RigidBody-2
*Rigid Body, ref node=_PickedSet43, elset=PART-1-1.LEFT-BLOCK
** Constraint: RigidBody-3
*Rigid Body, ref node=_PickedSet44, elset=PART-1-1.RIGHT-BLOCK
** Constraint: TIE-1-1
*Tie, name=TIE-1-1, adjust=yes
FIXER-BASE, BASE-FIXER
** Constraint: TIE-2-1
*Tie, name=TIE-2-1, adjust=yes
ARC-GATE, GATE-ARC
** Constraint: TIE-3-1
*Tie, name=TIE-3-1, adjust=yes
GATE-COLUMN, COLUMN-GATE
** Constraint: TIE-4-1
*Tie, name=TIE-4-1, adjust=yes
COLUMN-ARC, ARC-COLUMN
*End Assembly
** 
** ELEMENT CONTROLS
** 
*Section Controls, name=EC-1, hourglass=ENHANCED
1., 1., 1.
*Amplitude, name=AMP-1
             0.,              0.,             0.5,              1.
** 
** MATERIALS
** 
*Material, name=BASE
*Density
 2.7e-09,
*Elastic
72000., 0.31
*Material, name=TPU
*Density
 1.22e-09,
*Elastic
 0.5, 0.3
** 
** INTERACTION PROPERTIES
** 
*Surface Interaction, name=INTPROP-1
*Friction
0.,
*Surface Behavior, pressure-overclosure=HARD
** 
** INTERACTIONS
** 
** Interaction: general_contact
*Contact, op=NEW
*Contact Inclusions, ALL EXTERIOR
*Contact Property Assignment
 ,  , INTPROP-1
** ----------------------------------------------------------------
** 
** STEP: Step-1
** 
*Step, name=Step-1, nlgeom=YES
*Dynamic, Explicit
, 0.5
*Bulk Viscosity
0.06, 1.2
** 
** BOUNDARY CONDITIONS
** 
*Boundary
BASE-RP, 1, 1
BASE-RP, 2, 2
BASE-RP, 3, 3
BASE-RP, 4, 4
BASE-RP, 5, 5
BASE-RP, 6, 6
**
*Boundary, amplitude=AMP-1
LEFT-RP, 1, 1, 10.
LEFT-RP, 2, 2
LEFT-RP, 3, 3
LEFT-RP, 4, 4
LEFT-RP, 5, 5
LEFT-RP, 6, 6
** 
*Boundary, amplitude=Amp-1
RIGHT-RP, 2, 2
RIGHT-RP, 3, 3
RIGHT-RP, 4, 4
RIGHT-RP, 5, 5
RIGHT-RP, 6, 6
** 
** OUTPUT REQUESTS
** 
*Restart, write, number interval=1, time marks=NO
** 
** FIELD OUTPUT: F-Output-1
** 
*Output, field, variable=PRESELECT, number interval=25
** 
** HISTORY OUTPUT: H-Output-2
** 
*Output, history, time interval=0.001
*Node Output, nset=LEFT-RP
RF1, RF2, RF3, RM1, RM2, RM3, U1, U2
U3, UR1, UR2, UR3
** 
** HISTORY OUTPUT: H-Output-1
** 
*Output, history, variable=PRESELECT
*End Step
**
** Step 2
*Step, name=Step-2, nlgeom=YES
*Dynamic, Explicit
, 0.5
*Bulk Viscosity
0.06, 1.2
** 
** BOUNDARY CONDITIONS
** 
*Boundary, op=NEW
BASE-RP, 1, 1
BASE-RP, 2, 2
BASE-RP, 3, 3
BASE-RP, 4, 4
BASE-RP, 5, 5
BASE-RP, 6, 6
**
*Boundary, op=NEW, amplitude=AMP-1
LEFT-RP, 2, 2
LEFT-RP, 3, 3
LEFT-RP, 4, 4
LEFT-RP, 5, 5
LEFT-RP, 6, 6
**
*Boundary, op=NEW, amplitude=AMP-1
RIGHT-RP, 1, 1, -10.
RIGHT-RP, 2, 2
RIGHT-RP, 3, 3
RIGHT-RP, 4, 4
RIGHT-RP, 5, 5
RIGHT-RP, 6, 6
** 
** OUTPUT REQUESTS
** 
*Restart, write, number interval=1, time marks=NO
** 
** FIELD OUTPUT: F-Output-1
** 
*Output, field, variable=PRESELECT, number interval=25
** 
** HISTORY OUTPUT: H-Output-2
** 
*Output, history, time interval=0.001
*Node Output, nset=RIGHT-RP
RF1, RF2, RF3, RM1, RM2, RM3, U1, U2
U3, UR1, UR2, UR3
** 
** HISTORY OUTPUT: H-Output-1
** 
*Output, history, variable=PRESELECT
*End Step